<?xml version='1.0' encoding='us-ascii'?>
<routes xmlns:xsi="http://www.w3.org/2001/XMLSchema-instance" xsi:noNamespaceSchemaLocation="http://sumo.dlr.de/xsd/routes_file.xsd"><vType id="type1" vClass="passenger" guiShape="passenger/wagon" personCapacity="5" /><vType id="type2" vClass="passenger" guiShape="passenger/sedan" personCapacity="5" /><vType id="type3" vClass="passenger" guiShape="passenger/hatchback" personCapacity="5" /><vehicle id="veh0" type="type2" depart="0.0004537874084692823" personNumber="0"><route edges="16776 16779 16782 16785 16788 16791 16794 16797 16800 25438 30578 -32330 -30683 30684 29821 15189 15233 23936 14488 473 30486-AddedOnRampEdge 30486 29754-AddedOnRampEdge 29754 29754-AddedOffRampEdge 30032 29755 29756 29761 25355 25357 27560 25360 -1138 -1691 -1126 -1183 -1155 1154 1168 1161 667 726 724 722 714 706 669 696 689 681 674 611 573 619 622 444 442 30967 440 31317 1649 1651 438 31241 437 433 13351 6938 7070 7074 7080 7000 7190 7188 7183 7177 7194 6940 7010 7006 7002 6731 7013 7022 7051 6706 6941 6863 6933 6865 6868 6871 6874 5744 5711 5756 5755 5752 32947 5751 5747 5012 -5175 -5034 -5114 -5350 -5024 -5304 -26620 -5278 -5284 -5260 -5256 -8524 8523 23648 32361 32342 9308 9310 8341 9314 9318 8320 8316 6644 6616 6642 6636 6655 6632 6702 6553 6552 6546 6544 6539 6536 6560 6506 4624 4620 4603 4605 4609 4613 4616 279 282 4077 4081 284 4087 4091 4095 4003 4065 4069 4073 4061 4057 4055 3972 4027 21009 23405 4502 4505 286 4661 -4659 4658 -4650 4649 4645 4643 4637 4635 4641 4794 4642 4744 -4752 4751 -4758 4756 4787 288 4850 -4859 4857 -4865 4863 4867 20565 -4988 -4992 4991 20563 5006 -9562 9561 -9573 9572 9578 292 295 32363 303 304 20700 10171 18497 18519 18523 -18564 18563 10124 20798 -20802 20801 -17253 17252 -18853 18852 10152 10136" /></vehicle><vehicle id="veh1" type="type2" depart="0.0005057195929960767" personNumber="0"><route edges="32459 -13528 -13588 -24003 -23999 -29662 -23980 -24017 -13534 -3390 -23968 -24055 -23961 -3392 3393 -10806 -10791 -10788 -10768 -2830 -10777 -23977 -24073 -2348 -10757 -2357 -2645 -10397 -2968 -10512 -10518 -10521 -10474 -10472 -2905 -2904 -2900 -3074 -3078 -3082 -3085 -2578 -15446 -15376 15374 15426 -1794 -20617 -20614 -20611 -1792 -6121 -1809 -1873 -29683 -1869 -6168 -6184 -6220 -15166 -20596 -20593 -2673 -6256 -6224 -24348 -2391 -31900 31901 2398 2015 9952 16363 2013 9954 10032 10029 10036 16361 10055 10044 10045 -10049 10050 -9924 9925 15168 29730 -24455 24456 29728 29726 10114 -15174 15173 24403 24409 24412 24417 24422 24317 24314 24321 -20651 -20646 -20641 -20640 20639 10202 20543 20544 519 20546 20549 -13209 13210 520 32774 18841 18828 20511 20507 20503 18791 18789 18787 18785 18783 18781 18780 18777 18775 -18771 18770 -18769 18768 18767 18772 20635 17243 10147" /></vehicle><vehicle id="veh2" type="type3" depart="0.0005810932832656704" personNumber="0"><route edges="16128 -16134 -22889 -16105 -16170 -15497 -14234 14232 24881 28589 31975 22718 22693 22667 28677 31665 31663 28576 31657 20915 29504 28553 20911 20916 21422 21398 21388 20910 21359 29166 20909 22292 20906 29220 20973 20920 25256 22169 22148 15159 14236 14238 22119 20419 29135 15093 15104 14240 31213 -26986 -20015 -30611 -26989 -14241 -32766 -32768 -19940 -30606 -19912 -19896 -19863 -32638 -19808 -19755 -19748 -19715 -19708 -19672 -19635 -19601 -19564 -19507 -19465 -19418 -19387 -19362 -14223 -31826 -19225 -19212 19211 19206-AddedOnRampEdge 19206 14269 14270 14272 14273 14310 14314 14316 14317 14319 14321 17644 30784 17470 30016 30018 14324 15354 14327 14329 29875 15350 30814 24573 15324 14422 24570 30817 893 875 887 375 23762 1484 1480 1476 857 -1022 1021 1468 1071 1023 32088 1453 1488 1507 1491 816 1520 1497 1501 1505 1536 15284 1608 1609 1610 32595 32696 29807 29809 30809 11863 29829 29801 30885 11916 11913 32908 23306 32211 25381 29785 26991 32909 26666 11810 11804 1705 32954 32913 7259 7257 5455 23312 23313 5453 5237 5411 5418 23494 31177 5465 23317 5473 5479 5088 5506 5510 5529 5527 5533 5537 318 23684 23319 30430 9145 9156 5579 499 16200 16202 9107 9290 9288 9279 9255 502 23322 9244 9298 3859 3857 3691 3697 3710 23324 29916 3573 3575 3597 3599 3618 23328 3628 3634 3644 3654 3664 3674 3676 23331 481 16392 23417 9668 9679 23414 -9776 9775 9778 9780 9781 9784 23746 483 23745 9786 15329 9788 9796 9506 30177 9803 30173 -23739 -23736 -23735 23734 9814 9814-AddedOffRampEdge 23722 9508 -15478 15477 9489 9498 9496 9494 9490 9492 4983 29706 4986 20566 9593 9594 9596 15475 9598 9600 -9605 9604 9587 20711 9619 20710 30124 9590 9580 9586 29839 292 295 32363 303 304 20700 10171 18497 18519 18523 -18564 18563 10124 20798 -20802 20801 -17253 17252 -18853 18852 10152 10136" /></vehicle><vehicle id="veh3" type="type1" depart="0.0007209654559688556" personNumber="0"><route edges="6104 -2485 2487 9862 27793 31563 27797 2510 31548 9864 9864-AddedOffRampEdge 30133 9866 9868 30132 9744 9731 29874 20581 20569 13382-AddedOnRampEdge 13382 10120 30203 9873 9619 20710 30124 9590 9580 9586 29839 292 295 32363 303 304 20700 10171 18497 18519 18523 -18564 18563 10124 20798 -20802 20801 -17253 17252 -18853 18852 10152 10136" /></vehicle><vehicle id="veh4" type="type1" depart="0.001018412399810054" personNumber="0"><route edges="28403 -18526 -18478 18479 30663 30663-AddedOffRampEdge 20782 20778-AddedOnRampEdge 20778 18435 18452 18494 18606 18643 18643-AddedOffRampEdge 20501 18795 18793 20503 18791 18789 18787 18785 18783 18781 18780 18777 18775 -18771 18770 -18769 18768 18767 18772 20635 17243 10147" /></vehicle><vehicle id="veh5" type="type2" depart="0.0013042207347395871" personNumber="0"><route edges="31315 444 442 30967 440 31317 1649 1651 438 31241 437 433 13351 6938 7070 7074 7080 7000 7190 7188 7183 7177 7194 6940 7010 7006 7002 6731 7013 7022 7051 6706 6941 6863 6933 6865 6868 6871 6874 5744 5711 5756 5755 5752 32947 5751 5747 5012 -5175 -5034 -5114 -5350 -5024 -5304 -26620 -5278 -5284 -5260 -5256 -8524 8523 23648 32361 32342 9308 9310 8341 9314 9318 8320 8316 6644 6616 6642 6636 6655 6632 6702 6553 6552 6546 6544 6539 6536 6560 6506 4624 4620 4603 4605 4609 4613 4616 279 282 4077 4081 284 4087 4091 4095 4003 4065 4069 4073 4061 4057 4055 3972 4027 21009 23405 4502 4505 286 4661 -4659 4658 -4650 4649 4645 4643 4637 4635 4641 4794 4642 4744 -4752 4751 -4758 4756 4787 288 4850 -4859 4857 -4865 4863 4867 20565 -4988 -4992 4991 20563 5006 -9562 9561 -9573 9572 9578 292 295 32363 303 304 20700 10171 18497 18519 18523 -18564 18563 10124 20798 -20802 20801 -17253 17252 -18853 18852 10152 10136" /></vehicle><vehicle id="veh6" type="type3" depart="0.0014150822235626782" personNumber="0"><route edges="24593 24581 136 24483-AddedOnRampEdge 24483 152 153-AddedOnRampEdge 153 138 23667 23670-AddedOnRampEdge 23670 9241 9239 492" /></vehicle><vehicle id="veh7" type="type2" depart="0.001925127949069261" personNumber="0"><route edges="4426 -4429 -4397 -4996 4997 4502 4505 286 4661 -4659 4658 -4650 4649 4645 4643 4637 4635 4641 4794 4642 4744 -4752 4751 -4758 4756 4787 288 4850 -4859 4857 -4865 4863 4867 20565 -4988 -4992 4991 20563 5006 -9562 9561 -9573 9572 9578 292 295 32363 303 304 20700 10171 18497 18519 18523 -18564 18563 10124 20798 -20802 20801 -17253 17252 -18853 18852 10152 10136" /></vehicle><vehicle id="veh8" type="type2" depart="0.0019484191721753155" personNumber="0"><route edges="9315 9314 9318 8320 8316 6644 -6618 -5657 -5665 -5672 -5676 -5682 -5686 -5198 5199 5693 16198 23249 5760 23669 9143 9109 16199" /></vehicle><vehicle id="veh9" type="type2" depart="0.0019978386810661046" personNumber="0"><route edges="18393 -18324 -18310 -16425 -18273 -18258 -18245 -18231 -18215 -18204 -18187 -18174 -20487 -20489 20490 18293 20495 18435 18452 18494 18606 18643 18643-AddedOffRampEdge 20501 18795 18793 20503 18791 18789 18787 18785 18783 18781 18780 18777 18775 -18771 18770 -18769 18768 18767 18772 20635 17243 10147" /></vehicle><vehicle id="veh10" type="type1" depart="0.002310029961898626" personNumber="0"><route edges="1610 32595 32696 29807 29809 30809 11863 29829 29801 30885 11916 11913 32908 23306 32211 25381 29785 26991 32909 26666 11810 11804 1705 32954 32913 7259 7257 5455 23312 23313 5453 5237 5411 5418 23494 31177 5465 23317 5473 5479 5088 5506 5510 5529 5527 5533 5537 318 23684 23319 30430 9145 9156 5579 499 16199" /></vehicle><vehicle id="veh11" type="type2" depart="0.002429901625988629" personNumber="0"><route edges="10157 18768 18767 18772 20635 17243 10147" /></vehicle><vehicle id="veh12" type="type2" depart="0.002494089546861371" personNumber="0"><route edges="5141 -5157 -5139 -5335 -5326 -8487 -5132 -8499 -8514 -5134 -23644 23645 23648 32361 32342 9308 9310 8341 9314 9318 8320 8316 6644 6616 6642 6636 6655 6632 6702 6553 6552 6546 6544 6539 6536 6560 6506 4624 4620 4603 4605 4609 4613 4616 279 282 4077 4081 284 4087 4091 4095 4003 4065 4069 4073 4061 4057 4055 3972 4027 21009 23405 4502 4505 286 4661 -4659 4658 -4650 4649 4645 4643 4637 4635 4641 4794 4642 4744 -4752 4751 -4758 4756 4787 288 4850 -4859 4857 -4865 4863 4867 20565 -4988 -4992 4991 20563 5006 -9562 9561 -9573 9572 9578 292 295 32363 303 304 20700 10171 18497 18519 18523 -18564 18563 10124 20798 -20802 20801 -17253 17252 -18853 18852 10152 10136" /></vehicle><vehicle id="veh13" type="type2" depart="0.0025084699219237046" personNumber="0"><route edges="14193 -20033 -20016 -30611 -26989 -14241 -32766 -32768 -19940 -30606 -19912 -19896 -19863 -32638 -19808 -19755 -19748 -19715 -19708 -19672 -19635 -19601 -19564 -19507 -19465 -19418 -19387 -19362 -14223 -31826 -19225 -19212 19211 19206-AddedOnRampEdge 19206 14269 14270 14272 14273 14310 14314 14316 14317 14319 14321 17644 30784 17470 30016 30018 14324 15354 14327 14329 29875 15350 30814 24573 15324 14422 24570 30817 893 875 887 375 23762 1484 1480 1476 857 -1022 1021 1468 1071 1023 32088 1453 1488 1507 1491 816 1520 1497 1501 1505 1536 15284 1608 1609 1610 32595 32696 29807 29809 30809 11863 29829 29801 30885 11916 11913 32908 23306 32211 25381 29785 26991 32909 26666 11810 11804 1705 32954 32913 7259 7257 5455 23312 23313 5453 5237 5411 5418 23494 31177 5465 23317 5473 5479 5088 5506 5510 5529 5527 5533 5537 318 23684 23319 30430 9145 9156 5579 499 16199" /></vehicle><vehicle id="veh14" type="type1" depart="0.0027099075784098353" personNumber="0"><route edges="26933 26924 26926-AddedOnRampEdge 26926 -7230 -7219 -31234 31235 30978 7250 7249 30956 20938 1651 438 31241 437 433 13351 6937 7066 7064 7059 7056 1708 7082 7085 7086 7083 7093 509 31408 504 5725 506 507 23312 23313 5453 5237 5411 5418 23494 31177 5465 23317 5473 5479 5088 5506 5510 5529 5527 5533 5537 318 23684 23319 30430 9145 9156 5579 499 16199" /></vehicle><vehicle id="veh15" type="type3" depart="0.002721090311825414" personNumber="0"><route edges="12816 -12805 -13048 -7867 -13040 -13056 -13066 -13069 -13084 -12926 -13094 -13097 -31611 -31610 -31608 -31071 31072 -31870 -12750 -31932 -31928 -13389 -32253 -12778 -158 157 156 -7813 -7778 -7459 -7540 -7602 -7509 -7470 -7549 -7463 -7489 7490 27023 11690 30453 30434 30433 317 326 11723 9205 9206 9175 30830 9161 5544 5082 318 23684 23319 30430 9145 9156 5579 499 16200 16201 492" /></vehicle><vehicle id="veh16" type="type2" depart="0.0028255337903380887" personNumber="0"><route edges="9689 -23408 23407 -23411 23412 7427 32360 4505 286 4661 -4659 4658 -4650 4649 4645 4643 4637 4635 4641 4794 4642 4744 -4752 4751 -4758 4756 4787 288 4850 -4859 4857 -4865 4863 4867 20565 -4988 -4992 4991 20563 5006 -9562 9561 -9573 9572 9578 292 295 32363 303 304 20700 10171 18497 18519 18523 -18564 18563 10124 20798 -20802 20801 -17253 17252 -18853 18852 10152 10136" /></vehicle><vehicle id="veh17" type="type2" depart="0.0028423816020604308" personNumber="0"><route edges="21111 -13850 -21080 -13846 -21058 -21051 -28335 -28329 -21363 -21350 -21340 -21331 -21315 -21307 -21293 -21283 -21227 -21220 -29401 -21198 -14842 -14846 -14864 -14839 -14812 -14913 -14818 -14874 -14929 -14925 -14884 -14831 -14762 -14795 -14732 -14740 -14736 -14699 -29100 -29103 -14724 -14729 -14682 -14687 -14656 -14595 -14600 -14631 -14569 -14576 -14580 -14588 -14542 -14591 -14204 -14298 14299 30583 20153 -20109 -20099 -20105 20106 20078 20078-AddedOffRampEdge 32764 -32766 -32768 -19940 -30606 -19912 -19896 -19863 -32638 -19808 -19755 -19748 -19715 -19708 -19672 -19635 -19601 -19564 -19507 -19465 -19418 -19387 -19362 -14223 -31826 -19225 -19212 19211 19206-AddedOnRampEdge 19206 14269 14270 14272 14273 14310 14314 14316 14317 14319 14321 17644 30784 17470 30016 30018 14324 15354 14327 14329 29875 15350 30814 24573 15324 14422 24570 30817 893 875 887 375 23762 1484 1480 1476 857 -1022 1021 1468 1071 1023 32088 1453 1488 1507 1491 816 1520 1497 1501 1505 1536 15284 1608 1609 1610 32595 32696 29807 29809 30809 11863 29829 29801 30885 11916 11913 32908 23306 32211 25381 29785 26991 32909 26666 11810 11804 1705 32954 32913 7259 7257 5455 23312 23313 5453 5237 5411 5418 23494 31177 5465 23317 5473 5479 5088 5506 5510 5529 5527 5533 5537 318 23684 23319 30430 9145 9156 5579 499 16199" /></vehicle><vehicle id="veh18" type="type2" depart="0.0030805602540529783" personNumber="0"><route edges="18230 -18204 -18187 -18174 -20487 -20489 20490 18293 20495 18435 18452 18494 18606 18643 18643-AddedOffRampEdge 20501 18796 20509 20513 20515 32389 20543 20544 519 20546 20549 13211 10106 9923 10066 -10065 10064 -10057 10056 10060 10028 10022 -9939 9938 -9899 9900 9887 474 9885 541 9892 25396 10093 10088-AddedOnRampEdge 10088 10088-AddedOffRampEdge 20573 9870 20578 20579 15331 15335 476 30246 9504-AddedOnRampEdge 9504 15339 23748 3813 3773 23415 23420 32387 480 3561 3557 3550 3548 3540 3537 3510 489 3520 3523 31320 490 23325 -23374 -23368 -23364 -23360 -23358 -23354 -23350 -23341 -23345 -501 -9237 9239 492" /></vehicle><vehicle id="veh19" type="type2" depart="0.00333438859535253" personNumber="0"><route edges="4100 -3911 -4119 -3872 3873 4017 148 5010 5009 9384 9373 9343 9348 -9362 -7364 -7376 -28281 -9104 -23262 23261 23260 23257 23254 9254 9252 9097 23301 23253 23251 23249 5760 23669 9143 9109 16200 16201 492" /></vehicle><vehicle id="veh20" type="type1" depart="0.0034963972296446566" personNumber="0"><route edges="572 573 619 622 444 442 30967 440 31317 1649 1651 438 31241 437 433 13351 6938 7070 7074 7080 7000 7190 7188 7183 7177 7194 6940 7010 7006 7002 6731 7013 7022 7051 6706 6941 6863 6933 6865 6868 6871 6874 5744 5711 5756 5755 5752 32947 5751 5747 5012 -5175 -5034 -5114 -5350 -5024 -5304 -26620 -5278 -5284 -5260 -5256 -8524 8523 23648 32361 32342 9308 9310 8341 9314 9318 8320 8316 6644 6616 6642 6636 6655 6632 6702 6553 6552 6546 6544 6539 6536 6560 6506 4624 4620 4603 4605 4609 4613 4616 279 282 4077 4081 284 4087 4091 4095 4003 4065 4069 4073 4061 4057 4055 3972 4027 21009 23405 4502 4505 286 4661 -4659 4658 -4650 4649 4645 4643 4637 4635 4641 4794 4642 4744 -4752 4751 -4758 4756 4787 288 4850 -4859 4857 -4865 4863 4867 20565 -4988 -4992 4991 20563 5006 -9562 9561 -9573 9572 9578 292 295 32363 303 304 20700 10171 18497 18519 18523 -18564 18563 10124 20798 -20802 20801 -17253 17252 -18853 18852 10152 10136" /></vehicle><vehicle id="veh21" type="type2" depart="0.0037877028315189383" personNumber="0"><route edges="18810 -18797 -18782 18781 18780 18777 18775 -18771 18770 -18769 18768 18767 18772 20635 17243 10147" /></vehicle><vehicle id="veh22" type="type1" depart="0.0041141714390324205" personNumber="0"><route edges="13614 13626 -2146 -32154 -2889 -2424 -24096 -13278 -2895 -2207 -2464 -2463 -13032 -2458 -2455 -32245 -30416 -5836 -3102 -5811 -30370 -27592 -2988 -5886 -3240 -29688 -2112 -5867 -29691 -2473 -2546 -6105 -2407 -6108 6110 6113 6114 2487 9862 27793 31563 27797 2510 31548 9864 9864-AddedOffRampEdge 30133 9866 9868 30132 9744 9731 29874 20581 20569 13382-AddedOnRampEdge 13382 10120 30203 9873 9619 20710 30124 9590 9580 9586 29839 292 295 32363 303 304 20700 10171 18497 18519 18523 -18564 18563 10124 20798 -20802 20801 -17253 17252 -18853 18852 10152 10137 -10146 10147" /></vehicle><vehicle id="veh23" type="type2" depart="0.0044767973313528595" personNumber="0"><route edges="10191 18118 10142 20734 18251 20738 20740 10139 -18360 -18356 -18350 -32231 -18344 -20630 -10163 -20626 20627 18330 20625 18431 18300 18418 18281 18411 -30653 30655 30652 -20677 20676 20674 20673 30323 30650 20680-AddedOnRampEdge 20680 306 20703 310-AddedOnRampEdge 310 310-AddedOffRampEdge 32351 32356 9874 9485 29705 32357 9509 9517 -9523 9522 -9542 9541 9537 23726 9765 9761 9768 13306 31510 9771 -9711 9709 -9685 9684 -9843 9842 9840 9828 9666 23420 32387 480 3561 3557 3550 3548 3540 3537 3510 489 3520 3523 31320 490 23325 -23374 -23368 -23364 -23360 -23358 -23354 -23350 -23341 -23345 -501 -9237 9239 492" /></vehicle><vehicle id="veh24" type="type1" depart="0.005027464682603209" personNumber="0"><route edges="19974 -19953 -19936 -19923 -19908 -19901 -19887 -19869 -19845 -19838 -19796 -19793 -19769 -19759 -19737 -32706 -32702 -32705 -19652 -19643 -19640 -19633 -19601 -19564 -19507 -19465 -19418 -19387 -19362 -14223 -31826 -19225 -19212 19211 19206-AddedOnRampEdge 19206 14269 14270 14272 14273 14310 14314 14316 14317 14319 14321 17644 30784 17470 30016 30018 14324 15354 14327 14329 29875 15350 30814 24573 15324 14422 24570 30817 893 875 887 375 23762 1484 1480 1476 857 -1022 1021 1468 1071 1023 32088 1453 1488 1507 1491 816 1520 1497 1501 1505 1536 15284 1608 1609 1610 32595 32696 29807 29809 30809 11863 29829 29801 30885 11916 11913 32908 23306 32211 25381 29785 26991 32909 26666 11810 11804 1705 32954 32913 7259 7257 5455 23312 23313 5453 5237 5411 5418 23494 31177 5465 23317 5473 5479 5088 5506 5510 5529 5527 5533 5537 318 23684 23319 30430 9145 9156 5579 499 16200 16202 9107 9290 9288 9279 9255 502 23322 9244 9298 3859 3857 3691 3697 3710 23324 29916 3573 3575 3597 3599 3618 23328 3628 3634 3644 3654 3664 3674 3676 23331 481 16392 23417 9668 9679 23414 -9776 9775 9778 9780 9781 9784 23746 483 23745 9786 15329 9788 9796 9506 30177 9803 30173 -23739 -23736 -23735 23734 9814 9814-AddedOffRampEdge 23722 9508 -15478 15477 9489 9498 9496 9494 9490 9492 4983 29706 4986 20566 9593 9594 9596 15475 9598 9600 -9605 9604 9587 20711 9619 20710 30124 9590 9580 9586 29839 292 295 32363 303 304 20700 10171 18497 18519 18523 -18564 18563 10124 20798 -20802 20801 -17253 17252 -18853 18852 10152 10136" /></vehicle><vehicle id="veh25" type="type2" depart="0.005066281342282467" personNumber="0"><route edges="7309 -23330 -3559 3561 3557 3550 3548 3540 3537 3510 489 3520 3523 31320 490 23325 -23374 -23368 -23364 -23360 -23358 -23354 -23350 -23341 -23345 -501 -9237 9239 492" /></vehicle><vehicle id="veh26" type="type3" depart="0.005333417690817034" personNumber="0"><route edges="21284 -21249 -21232 -21225 -21221 -21215 -21209 -21181 -21183 -21178 -21167 -15130 -21162 -25255 25256 22169 22148 15159 14236 14238 22119 20419 29135 15093 15104 14240 31213 -26986 -20015 -30611 -26989 -14241 -32766 -32768 -19940 -30606 -19912 -19896 -19863 -32638 -19808 -19755 -19748 -19715 -19708 -19672 -19635 -19601 -19564 -19507 -19465 -19418 -19387 -19362 -14223 -31826 -19225 -19212 19211 19206-AddedOnRampEdge 19206 14269 14270 14272 14273 14310 14314 14316 14317 14319 14321 17644 30784 17470 30016 30018 14324 15354 14327 14329 29875 15350 30814 24573 15324 14422 24570 30817 893 875 887 375 23762 1484 1480 1476 857 -1022 1021 1468 1071 1023 32088 1453 1488 1507 1491 816 1520 1497 1501 1505 1536 15284 1608 1609 1610 32595 32696 29807 29809 30809 11863 29829 29801 30885 11916 11913 32908 23306 32211 25381 29785 26991 32909 26666 11810 11804 1705 32954 32913 7259 7257 5455 23312 23313 5453 5237 5411 5418 23494 31177 5465 23317 5473 5479 5088 5506 5510 5529 5527 5533 5537 318 23684 23319 30430 9145 9156 5579 499 16199" /></vehicle><vehicle id="veh27" type="type1" depart="0.005492682096415977" personNumber="0"><route edges="1603 1601 1598 17281 1596 1574 1569 615 622 444 442 30967 440 31317 1649 1651 438 31241 437 433 13351 6937 7066 7064 7059 7056 1708 7082 7085 7086 7083 7093 509 31408 504 5725 506 507 23312 23313 5453 5237 5411 5418 23494 31177 5465 23317 5473 5479 5088 5506 5510 5529 5527 5533 5537 318 23684 23319 30430 9145 9156 5579 499 16199" /></vehicle><vehicle id="veh28" type="type2" depart="0.0056375152271617305" personNumber="0"><route edges="469 30038 1240 1218 -365 -30849 -30866 -25361 -1138 -1691 -1126 -1183 -1155 1154 1168 1161 667 726 724 722 714 706 669 696 689 681 674 611 573 619 622 444 442 30967 440 31317 1649 1651 438 31241 437 433 13351 6937 7066 7064 7059 7056 1708 7082 7085 7086 7083 7093 509 31408 504 5725 506 507 23312 23313 5453 5237 5411 5418 23494 31177 5465 23317 5473 5479 5088 5506 5510 5529 5527 5533 5537 318 23684 23319 30430 9145 9156 5579 499 16199" /></vehicle><vehicle id="veh29" type="type1" depart="0.0060215079230987395" personNumber="0"><route edges="1244 1240 1218 -365 -30849 -30866 -25361 -1138 -1691 -1126 -1183 -1155 1154 1168 1161 667 726 724 722 714 706 669 696 689 681 674 611 573 619 622 444 442 30967 440 31317 1649 1651 438 31241 437 433 13351 6937 7066 7064 7059 7056 1708 7082 7085 7086 7083 7093 509 31408 504 5725 506 507 23312 23313 5453 5237 5411 5418 23494 31177 5465 23317 5473 5479 5088 5506 5510 5529 5527 5533 5537 318 23684 23319 30430 9145 9156 5579 499 16199" /></vehicle><vehicle id="veh30" type="type3" depart="0.006394739290344955" personNumber="0"><route edges="23234 5562 5571 328 -23227 -5626 -5625 -5636 -5645 -5654 -5661 -5656 -6617 -6615 6616 6642 6636 6655 6632 6702 6553 6552 6546 6544 6539 6536 6560 6506 4624 4620 4603 4605 4609 4613 4616 279 282 4077 4081 284 4087 4091 4095 4003 4065 4069 4073 4061 4057 4055 3972 4027 21009 23405 4502 4505 286 4661 -4659 4658 -4650 4649 4645 4643 4637 4635 4641 4794 4642 4744 -4752 4751 -4758 4756 4787 288 4850 -4859 4857 -4865 4863 4867 20565 -4988 -4992 4991 20563 5006 -9562 9561 -9573 9572 9578 292 295 32363 303 304 20700 10171 18497 18519 18523 -18564 18563 10124 20798 -20802 20801 -17253 17252 -18853 18852 10152 10136" /></vehicle><vehicle id="veh31" type="type2" depart="0.006443814624702816" personNumber="0"><route edges="31577 31650 31654 29638 29639 -11495 -11395 -32073 -2702 -2737 -27455 -2717 -32067 32066 32070 2730 31052 -25477 -8177 -2775 -11609 -2724 -11604 -7875 -7888 -8097 -7882 -25485 -27048 -26458 -26464 -31884 -31881 -31971 -7434 -7858 7857 25523 25525 -25528 25527 12022 -12099 -11987 11986 29696 12040 11962 12193 11988 30439 29697 30434 30433 317 326 11723 9205 9206 9175 30830 9161 5544 5082 318 23684 23319 30430 9145 9156 5579 499 16199" /></vehicle><vehicle id="veh32" type="type3" depart="0.006983666726854607" personNumber="0"><route edges="7889 -7882 -25485 -27048 -26458 -26464 -31884 -31881 -31971 -7434 -7858 7857 -12679 12678 12682 -12705 -7623 -7620 -7615 -7715 -7729 -7530 -7686 -7573 -7651 -7760 -7536 -7539 -27579 -7500 -7543 -32965 -7804 -7820 -7827 -27084 27085 24581 135 544 24480 24480-AddedOffRampEdge 27087 -7269 7268 27086 31752 16395 30112-AddedOnRampEdge 30112 3725 3750 3752 23490 13208 28086 27031 27831 27852 28074 30106 9844 535 32155 32386 -27751 -9750 -9756 -9758 -28375 -28369 -28363 -28359 -9732 -9730 9731 29874 20581 20569 13382-AddedOnRampEdge 13382 10120 30203 9873 9619 20710 30124 9590 9580 9586 29839 292 295 32363 303 304 20700 10171 18497 18519 18523 -18564 18563 10124 20798 -20802 20801 -17253 17252 -18853 18852 10152 10136" /></vehicle><vehicle id="veh33" type="type1" depart="0.0075448299425902995" personNumber="0"><route edges="18753 -18746 18745 -18916 18917 18913 18913-AddedOffRampEdge 20506 20509 20513 20515 32389 20543 20544 519 20546 20549 13211 10106 9923 10066 -10065 10064 -10057 10056 10060 10028 10022 -9939 9938 -9899 9900 9887 474 9885 541 9892 25396 10093 10088-AddedOnRampEdge 10088 10088-AddedOffRampEdge 20573 9870 20578 20579 15331 15335 476 30246 9504-AddedOnRampEdge 9504 15339 23748 3813 3773 23415 23420 32387 480 3561 3557 3550 3548 3540 3537 3510 489 3520 3523 31320 490 23325 -23374 -23368 -23364 -23360 -23358 -23354 -23350 -23341 -23345 -501 -9237 9239 492" /></vehicle><vehicle id="veh34" type="type1" depart="0.008158295407554368" personNumber="0"><route edges="12034 -25529 -32758 32756 -7484 -7486 -7517 -7845 -7618 -7615 -7715 -7729 -7530 -7686 -7573 -7651 -7760 -7536 -7539 -27579 -7500 -7543 -32965 -7804 -7820 -7827 -27084 27085 24581 135 544 24480 24480-AddedOffRampEdge 27087 -7269 7268 27086 31752 16395 30112-AddedOnRampEdge 30112 3725 3750 3752 23490 13208 28086 27031 27831 27852 28074 30106 9844 535 32155 32386 -27751 -9750 -9756 -9758 -28375 -28369 -28363 -28359 -9732 -9730 9731 29874 20581 20569 13382-AddedOnRampEdge 13382 10120 30203 9873 9619 20710 30124 9590 9580 9586 29839 292 295 32363 303 304 20700 10171 18497 18519 18523 -18564 18563 10124 20798 -20802 20801 -17253 17252 -18853 18852 10152 10136" /></vehicle><vehicle id="veh35" type="type1" depart="0.00827063957587604" personNumber="0"><route edges="4995 4991 20563 5006 -9562 9561 -9573 9572 9578 292 295 32363 303 304 20700 10171 18497 18519 18523 -18564 18563 10124 20798 -20802 20801 -17253 17252 -18853 18852 10152 10136" /></vehicle><vehicle id="veh36" type="type3" depart="0.008475217358443162" personNumber="0"><route edges="29486 846 843-AddedOnRampEdge 843 29803 29901 29901-AddedOffRampEdge 16211 16212 32595 32696 29807 29809 30809 11863 29829 29801 30885 11916 11913 32908 23306 32211 25381 29785 26991 32909 26666 11810 11804 1705 32954 32913 7259 7257 5455 23312 23313 5453 5237 5411 5418 23494 31177 5465 23317 5473 5479 5088 5506 5510 5529 5527 5533 5537 318 23684 23319 30430 9145 9156 5579 499 16200 16202 9107 9290 9288 9279 9255 502 23322 9244 9298 3859 3857 3691 3697 3710 23324 29916 3573 3575 3597 3599 3618 23328 3628 3634 3644 3654 3664 3674 3676 23331 481 16392 23417 9668 9679 23414 -9776 9775 9778 9780 9781 9784 23746 483 23745 9786 15329 9788 9796 9506 30177 9803 30173 -23739 -23736 -23735 23734 9814 9814-AddedOffRampEdge 23722 9508 -15478 15477 9489 9498 9496 9494 9490 9492 4983 29706 4986 20566 9593 9594 9596 15475 9598 9600 -9605 9604 9587 20711 9619 20710 30124 9590 9580 9586 29839 292 295 32363 303 304 20700 10171 18497 18519 18523 -18564 18563 10124 20798 -20802 20801 -17253 17252 -18853 18852 10152 10136" /></vehicle><vehicle id="veh37" type="type1" depart="0.00855011880739735" personNumber="0"><route edges="4354 -4364 -4408 -4401 -16 -4423 -4398 -4996 4997 4502 4505 286 4661 -4659 4658 -4650 4649 4645 4643 4637 4635 4641 4794 4642 4744 -4752 4751 -4758 4756 4787 288 4850 -4859 4857 -4865 4863 4867 20565 -4988 -4992 4991 20563 5006 -9562 9561 -9573 9572 9578 292 295 32363 303 304 20700 10171 18497 18519 18523 -18564 18563 10124 20798 -20802 20801 -17253 17252 -18853 18852 10152 10136" /></vehicle><vehicle id="veh38" type="type1" depart="0.008586504085105437" personNumber="0"><route edges="16833 -16833 -16836 -16839 -16844 -16847 -16850 -17099 -17034 -17028 -17024 -17020 -17016 -16855 -16977 16979 -30683 30684 29821 15189 15233 23936 14488 473 30486-AddedOnRampEdge 30486 29754-AddedOnRampEdge 29754 29754-AddedOffRampEdge 30032 29755 29756 29761 25355 25357 27560 25360 -1138 -1691 -1126 -1183 -1155 1154 1168 1161 667 726 724 722 714 706 669 696 689 681 674 611 573 619 622 444 442 30967 440 31317 1649 1651 438 31241 437 433 13351 6937 7066 7064 7059 7056 1708 7082 7085 7086 7083 7093 509 31408 504 5725 506 507 23312 23313 5453 5237 5411 5418 23494 31177 5465 23317 5473 5479 5088 5506 5510 5529 5527 5533 5537 318 23684 23319 30430 9145 9156 5579 499 16199" /></vehicle><vehicle id="veh39" type="type1" depart="0.008740697371610515" personNumber="0"><route edges="7147 32457 32458 7131 23585 261 7118 27051 7120 7129 8592 274 8585 262 32934 29710 265 266 23654 5151 5161 5106 5339 5323 5127 8497 8510 8523 23648 32361 32342 9308 9310 8341 9314 9318 8320 8316 6644 6616 6642 6636 6655 6632 6702 6553 6552 6546 6544 6539 6536 6560 6506 4624 4620 4603 4605 4609 4613 4616 279 282 4077 4081 284 4087 4091 4095 4003 4065 4069 4073 4061 4057 4055 3972 4027 21009 23405 4502 4505 286 4661 -4659 4658 -4650 4649 4645 4643 4637 4635 4641 4794 4642 4744 -4752 4751 -4758 4756 4787 288 4850 -4859 4857 -4865 4863 4867 20565 -4988 -4992 4991 20563 5006 -9562 9561 -9573 9572 9578 292 295 32363 303 304 20700 10171 18497 18519 18523 -18564 18563 10124 20798 -20802 20801 -17253 17252 -18853 18852 10152 10136" /></vehicle><vehicle id="veh40" type="type1" depart="0.008879348825969557" personNumber="0"><route edges="19073 -24045 -2791 -24037 -24071 -23952 -24035 -24083 -20667 -3321 -13585 13586 20656 13164 13180 13190 13159 13161 3315 20622 29835 -3308 -12904 -12900 -12848 -11412 -2700 -3293 -8267 -8285 -2596 2595 2594 -8241 -8228 -7917 -8148 -7966 -8105 -8186 -8171 -8155 -7878 -7888 -8097 -7882 -25485 -27048 -26458 -26464 -31884 -31881 -31971 -7434 -7858 7857 25523 25525 -25528 25527 12022 -12099 -11987 11986 29696 12040 11962 12193 11988 30439 29697 30434 30433 317 326 11723 9205 9206 9175 30830 9161 5544 5082 318 23684 23319 30430 9145 9156 5579 499 16200 16201 492" /></vehicle><vehicle id="veh41" type="type2" depart="0.009095538323877009" personNumber="0"><route edges="26386 -26341 -20971 -20980 -20432 -20398 -20381 -20365 -20355 -20336 -20325 -20318 -20300 -20285 -32648 -26445 -20258 -26443 -20239 -20213 -32623 -20187 -20131 -20122 -20087 -20083 -20067 -20059 -20040 -20034 -20016 -30611 -26989 -14241 -32766 -32768 -19940 -30606 -19912 -19896 -19863 -32638 -19808 -19755 -19748 -19715 -19708 -19672 -19635 -19601 -19564 -19507 -19465 -19418 -19387 -19362 -14223 -31826 -19225 -19212 19211 19206-AddedOnRampEdge 19206 14269 14270 14272 14273 14310 14314 14316 14317 14319 14321 17644 30784 17470 30016 30018 14324 15354 14327 14329 29875 15350 30814 24573 15324 14422 24570 30817 893 875 887 375 23762 1484 1480 1476 857 -1022 1021 1468 1071 1023 32088 1453 1488 1507 1491 816 1520 1497 1501 1505 1536 15284 1608 1609 1610 32595 32696 29807 29809 30809 11863 29829 29801 30885 11916 11913 32908 23306 32211 25381 29785 26991 32909 26666 11810 11804 1705 32954 32913 7259 7257 5455 23312 23313 5453 5237 5411 5418 23494 31177 5465 23317 5