<?xml version='1.0' encoding='us-ascii'?>
<routes xmlns:xsi="http://www.w3.org/2001/XMLSchema-instance" xsi:noNamespaceSchemaLocation="http://sumo.dlr.de/xsd/routes_file.xsd"><vehicle id="0" depart="0.00"><route edges="9473 4276 9460 4304 3476 4311 4309 4305 4307 3477 9039 8929 10536-AddedOnRampEdge 10536 8931 11087 8921 9090 9093 11048 3244 10362-AddedOnRampEdge 10362 3247 10998 2204 2208 2295 2292 2234 2289 2194 2254 2259 2206 1985 1975 2223 1977 1983 1938 10464 1937 1935 1922 9211" /></vehicle><vehicle id="1" depart="0.00"><route edges="916 2520 2530 815 1716 2548 816 848 983 978 1605 1637 1641 1590 1655 817 1652 819 1672 820 2740 1528 1506 1305 999 8772 989 8875-AddedOnRampEdge 8875" /></vehicle><vehicle id="2" depart="0.00"><route edges="2846 2852 2472 10877 2869 2080 2077 2075 4651 4661 10633 10636 4689 2121 2095 7125 10693 10696 9644 2058 8904 8903 8903-AddedOffRampEdge 10639 10344-AddedOnRampEdge 10344 10344-AddedOffRampEdge 2152 2154 2147 6507 6231 6243 6247 6488 6494 6497 6500" /></vehicle><vehicle id="3" depart="0.00"><route edges="4546 4552 4557 11004 9635 9633 9629 4447 4447-AddedOffRampEdge 9542 9546 1806 1817 9370 3806 3823 1999 3776 3228 3295 3783 263 3306 266 2886 3317 2191 255 2009 2230 2176 2253 2177 2185 1975 2223 1976 1978 1946 1990 1948" /></vehicle><vehicle id="4" depart="0.00"><route edges="1828 1828-AddedOffRampEdge 1826 8946 3348 3238 8541 9052 8937 8940 3339 3609 3595 3581 3307 3749 3264 3299 3904 3887 3847 3843 3837 3834 3920 3855 3803 1998 155 3107 2909 3001 3157 3024 2062 2057 157 2413 2406 2858 2840 2403 2822 2809 2796 2777 159 2729 813 1524 1043 1521 1514 1030 1513 1510" /></vehicle><vehicle id="5" depart="0.00"><route edges="518 680 682 686 151 675 10160 10158 537 672 553 532 8309 8275 606 8287 570 8828 8154 8156 10461 8149 10454 564 560 8690 9109 831 2579 2566 30 1698 1697 1702 1705 1709 1676 1694 9310 9957 1548 1553 906 1311 1487 89" /></vehicle><vehicle id="6" depart="0.00"><route edges="10421 10420 4422 2106 2102 3992 3983 3855 3803 1998 155 3107 2909 3001 3157 3024 2062 2057 157 2413 2406 2858 2840 2403 2822 2809 2796 2777 159 2729 813 1524 1043 1521 1514 1030 1513 1510" /></vehicle><vehicle id="7" depart="0.00"><route edges="1547 1688 9602 91 1539 1542 1668 1565 1648 1581 1659 1594 1633 1609 1617 1045 1626 1047 8248 1050 2544 1712 2535 1051 1072 815 1716" /></vehicle><vehicle id="8" depart="0.00"><route edges="1130 1195 1261 1127 1193 1122 9683 1499 41 1057 1300 1503 1044 9953 1542 1668 1565 1648 1581 1659 1594 1633 1609 1617 1045 1626 1047 8248 1050 2544 1712 2535 1052 2526 1054 1789 1751 8560 876 867 8605 871 872 1924 10145" /></vehicle><vehicle id="9" depart="0.00"><route edges="4657 4655 4655-AddedOffRampEdge 993 10398 2799 2485 2496 2734 2731 1 2685 2684 8843 8848 2678 2661 2623 2522 0 2586 8245 1930 1073 1762 1752 1790 916 2520 2530 815 1716" /></vehicle><vehicle id="10" depart="0.00"><route edges="11104 1891 1956 1881 1020 1023 1025 1918 1018 1016 8468 9349 1015 1761 1011 1013 2523 1004 2533 1007 2541 8236 8246 843 980 1083 11151 2757 2015 2410 2779 2811 2825 2688 2411 2707 2714 2461 2829 2836 2408 9539 2082 2084 2086 4649 4663 10636 4689 2121 2095 7125 10693 10696 9644 2058 8904 8903 8903-AddedOffRampEdge 10639 10344-AddedOnRampEdge 10344 10344-AddedOffRampEdge 2152 2154 2147 6507 6231 6243 6247 6488 6494 6497 6500" /></vehicle><vehicle id="11" depart="0.00"><route edges="119 1744 1746 1758 1729 1730 898 8466 901 855 1361 8629 11059 851 11111 11133-AddedOnRampEdge 11133 850 548 138 169 136 133 8512 131 5024 9256 129 8664" /></vehicle><vehicle id="12" depart="0.00"><route edges="8242 2584 5139 5145 5144 30 1698 1697 1702 1705 1709 1676 1694 9310 9957 1548 1553 906 1311 1487 89" /></vehicle><vehicle id="13" depart="0.00"><route edges="4755 4751 4679 4742 4681 4738 4733 4664 4646 50 4717 10408 2056 2048 2048-AddedOffRampEdge 9648" /></vehicle><vehicle id="14" depart="0.00"><route edges="478 630 657 633 634 667 583 644 736 7631 7608 7614 8683 7610 133 8512 9103 10392 371 5035 8706 339 5012 23 1469 31 10396 33 811 812-AddedOnRampEdge 812 812-AddedOffRampEdge 8495 8495-AddedOffRampEdge 10377 10377-AddedOffRampEdge 984 10397 991 8325 4765 42 4962 4963 4968 4969 4651 4661 10633 10636 4689 2121 2095 7125 10693 10696 9644 2058 8904 8903 8903-AddedOffRampEdge 10639 10344-AddedOnRampEdge 10344 10344-AddedOffRampEdge 2152 2154 2147 6507 6231 6243 6247 6488 6494 6497 6500" /></vehicle><vehicle id="15" depart="0.00"><route edges="527 525 522 8308 9124 949 11123 969 11177 907 909 1364 853 107 8238 2538 1007 2541 8236 8246 843 980 1083 11151 2757 2015 2410 2779 2811 2825 2688 2411 2707 2714 2461 2829 2836 2408 9539 2082 2084 2086 4649 4663 10636 4689 2121 2095 7125 10693 10696 9644 2058 8904 8903 8903-AddedOffRampEdge 10639 10344-AddedOnRampEdge 10344 10344-AddedOffRampEdge 2152 2154 2147 6507 6229 6290 6234 6237 6241 6326 6329 6257 6332 6387 6382 10594 7356 7361 7363 7370" /></vehicle><vehicle id="16" depart="0.00"><route edges="2395 10399 10398 2799 2484 2738 2742 2769 2486 2774 2783 2804 2817 2482 2844 2854 2475 10877 2869 2080 2077 2075 4651 4661 10633 10636 4689 2121 2095 7125 10693 10696 9644 2058 8904 8903 8903-AddedOffRampEdge 10639 10344-AddedOnRampEdge 10344 10344-AddedOffRampEdge 2152 2154 2147 6507 6231 6243 6247 6488 6494 6497 6500" /></vehicle><vehicle id="17" depart="0.00"><route edges="2788 2790 2782 2792 2819 2404 2476 2846 2852 2472 10877 2871 2873 2860 10401 10418 2473 8482 10402-AddedOnRampEdge 10402 998 996 10400 8134 10375 1058 1518 1516 1038 38 1492 1496 1494 1027 1034 9171 8402 1394 8432 8401 8413 1441 8484 5107 8455 8448 8670 8457 8458 8461 8664" /></vehicle><vehicle id="18" depart="0.00"><route edges="3360 10984 8986 10689 8958 4430 4426 3355 11145 3357 4435 4438 2106 2101 3831 10422 10416 4104 1807 8326 4473 2109 4475 4512 4537 2131 4445 9882 7021 7580 7024 7033 7012 9897 10344-AddedOnRampEdge 10344 10344-AddedOffRampEdge 2152 2154 2147 6507 6229 6290 6234 6237 6241 6326 6329 6257 6332 6387 6382 10594 7356 7361 7363 7370" /></vehicle><vehicle id="19" depart="0.00"><route edges="6128 6124 6101 6086 6084 5739 5737 5928 5909 5771 5882 5734 5731 5860 5840 5836 5420 5421 5621 5605 5426 9566 5428 5587 9894 5570 5163 5559 1230 1217 85 5272 5296 323 307 325 10340 10465 5076 5075 5073 5071 5197 353 368 8508 8502 390 399 10525 126 415 429 5324 8487 424 8530 8532" /></vehicle><vehicle id="20" depart="0.00"><route edges="4191 4189 4182 4186 4130 4177 4175 4196 9734 4173 9904 8326 4473 2109 4475 4512 4537 2131 4445 9882 7021 7580 7024 7033 7012 9897 10344-AddedOnRampEdge 10344 10344-AddedOffRampEdge 2152 2154 2147 6507 6229 6290 6234 6237 6241 6326 6329 6257 6332 6387 6382 10594 7356 7361 7363 7370" /></vehicle><vehicle id="21" depart="0.00"><route edges="4566 10407 4625 10412 1803 1819 4577 10403 1821 2047 10405 3179 3160 3158 3196 3188 2083 2076 2873 2860 10401 10418 2473 8482 10402-AddedOnRampEdge 10402 998 997 8772 989 8875-AddedOnRampEdge 8875" /></vehicle><vehicle id="22" depart="0.00"><route edges="1071 2531 1714 2546 1069 845 980 1083 11151 2757 2015 2410 2779 2811 2825 2688 2411 2707 2714 2461 2829 2836 2408 9539 2082 2084 2086 4649 4663 10636 4689 2121 2095 7125 10693 10696 9644 2058 8904 8903 8903-AddedOffRampEdge 10639 10344-AddedOnRampEdge 10344 10344-AddedOffRampEdge 2152 2154 2147 6507 6229 6290 6234 6237 6241 6326 6329 6257 6332 6387 6382 10594 7356 7361 7363 7370" /></vehicle><vehicle id="23" depart="0.00"><route edges="5470 82 84 86 9928 59 8739 1115 1178 1139 11095 11093 8367 1035 11099 11101 11103 37 798 1491 89" /></vehicle><vehicle id="24" depart="0.00"><route edges="693 8305 8267 544 8274 457 522 8307 601 8272 8281 8252 139 546 850 9109 831 2579 2566 30 1698 1697 1702 1705 1709 1676 1694 9310 9957 1548 1553 906 1311 1487 89" /></vehicle><vehicle id="25" depart="0.00"><route edges="3345 3341 3333 9067 9074 9076 9083 9226 9015 9019 3255 8921 9090 9093 11048 3244 10362-AddedOnRampEdge 10362 3247 10998 2204 2208 2295 2292 2234 2289 2194 2254 2259 2206 1985 1975 2223 1977 1983 1938 10464 1937 1935 1922 9211" /></vehicle><vehicle id="26" depart="0.00"><route edges="781 759 689 943 927 858 9709 955 10268 8585 241 828 862 9703 893 860 1019 8878 8611 8610 871 872 1925 1902 1063 1062 1885 1949 1951 1965 1953 1970 1946 1990 1948" /></vehicle><vehicle id="27" depart="0.00"><route edges="1871 11000 1883 1065 1067 1900 8610 871 872 1925 1902 1063 1062 1885 1949 1951 1965 1953 1970 1946 1990 1948" /></vehicle><vehicle id="28" depart="0.00"><route edges="1859 1860 1862 1865 888 883 894 896 1746 1758 1729 1730 898 8466 899 10678 111 8239 1003 9326 1051 1072 815 1716" /></vehicle><vehicle id="29" depart="0.00"><route edges="4138 4152 4153 4171 2110 4173 9904 8326 4473 2109 4475 4512 4537 2131 4445 9882 7021 7580 7024 7033 7012 9897 10344-AddedOnRampEdge 10344 10344-AddedOffRampEdge 2152 2154 2147 6507 6231 6243 6247 6488 6494 6497 6500" /></vehicle><vehicle id="30" depart="0.00"><route edges="8782 8781 9498 3501 3240 11066 3557 3552 3242 3250 3348 3239 8998 8916 8859 4007 4061 8913 2100 2109 4475 4512 4537 2131 4445 9882 7021 7580 7024 7033 7012 9897 10344-AddedOnRampEdge 10344 10344-AddedOffRampEdge 2152 2154 2147 6507 6229 6290 6234 6237 6241 6326 6329 6257 6332 6387 6382 10594 7356 7361 7363 7370" /></vehicle><vehicle id="31" depart="0.00"><route edges="1904 885 883 894 896 1746 1758 1729 1730 898 8466 899 10678 111 8238 2538 1007 2541 8236 8246 843 980 1083 11151 2757 2015 2410 2779 2811 2825 2688 2411 2707 2714 2461 2829 2836 2408 9539 2082 2084 2086 4649 4663 10636 4689 2121 2095 7125 10693 10696 9644 2058 8904 8903 8903-AddedOffRampEdge 10639 10344-AddedOnRampEdge 10344 10344-AddedOffRampEdge 2152 2154 2147 6507 6231 6243 6247 6488 6494 6497 6500" /></vehicle><vehicle id="32" depart="0.00"><route edges="8596 3219 8779 3504 10784 3287 3224 3324 3275 3216 2263 2241 2269 2266 2261 2226 2174 2194 2254 2259 2206 1985 1975 2223 1977 1983 1938 10464 1937 1935 1922 9211" /></vehicle><vehicle id="33" depart="0.00"><route edges="7203 8075 6313 10598 6480 10732 6478 6466 6205 6463 6442 6432 6374 8816 8819 6196-AddedOnRampEdge 6196 6197 6199 6188 7846 8821 7072 10845 7059 7831 7826 7816 7060 2041 9877 10315 7644 2044 2046 2003 9646 9798 10713 10709 9645 9643 4686 4745 2052 4741 4736 2054 4645 10754 2056 2047 10405 3179 3160 3158 3196 3188 2083 2076 2873 2860 10401 10418 2473 8482 10402-AddedOnRampEdge 10402 998 997 8772 989 8875-AddedOnRampEdge 8875" /></vehicle><vehicle id="34" depart="0.00"><route edges="7951 7945 7403 7427 7461 7477 7471 7492 7514 10949 6184 8800 8804 6437 8816 8818 11073 10765 10763 11088 9917 6183" /></vehicle><vehicle id="35" depart="0.00"><route edges="9269 4443-AddedOnRampEdge 4443 10363 2151 4530 9639 9629 4447 4447-AddedOffRampEdge 9542 9546 1806 1817 9370 3808 3205 156 3037 3015 2013 9521 2011 2948 2942 3063 3079 3121 2979 2986 2939 2899 3003 2953 2510 2878 11187 2513 2516 10670 2519 10669 918 1053 1798 1794 9331 9279 9283 1012 921 114 10679 902 1344 10563 832 8640 9343 864 11171 961 11118 952 892 552 926 928 944" /></vehicle><vehicle id="36" depart="0.00"><route edges="3512 3514 9507 9099 9096 9094 9091 9089 9086 9018 9017 9225 9011 3671 3260 3757 3742 3718 3719 9049 3701 3663 3652 3643 3625 3630 3613 9053 265 2508 3060 3081 3117 2983 2899 3003 2953 2510 2878 11187 2513 2516 10670 2519 10669 919 2528 2530 815 1716" /></vehicle><vehicle id="37" depart="0.00"><route edges="236 1409 484 5248 5253 5252 5255 8518 8520 8521 8524 8525 8576 8527 8530 8532 8534 9010 8729 8717 8725 8720 8727 8723 5099 11 5091 5160 5182 189 1395 58 1216 8646 5557 9262 1156 1243 1055 1251 1077 1170 4867 4879 4774 4906 4906-AddedOffRampEdge 4959 5704 5705 5701 5989 6014 5991 5969 6137 6051 5986 6160 2091 5696 10038 7707 10724 7679 7180 7186 7090 7093 7653 7112 9766 10840 7648 9770 9876 2042 6978 6964 6977 6996 8059 6992 7810 7809 7825 7824 10848 10846 7071 8820 7845 6187 7372 7387 7394 7396 7513 6189 10949 6184 8800 8804 6437 8816 8818 11073 10765 10763 11088 9917 6183" /></vehicle><vehicle id="38" depart="0.00"><route edges="9170 8366 1158 1200 1121 8584 1151 1234 1123 1265 9685 1284" /></vehicle><vehicle id="39" depart="0.00"><route edges="6323 7192 7198 7203 8075 6313 10598 6480 10732 6478 6466 6205 6463 6442 6432 6374 8816 8819 6196-AddedOnRampEdge 6196 6197 6199 6188 7846 8821 7072 10845 7059 7831 7826 7816 7060 2041 9877 10315 7644 2044 2046 2003 9646 9798 10713 10709 9645 9643 4686 4745 2052 4741 4736 2054 4645 10754 2056 2047 10405 3179 3160 3158 3196 3188 2083 2076 2873 2860 10401 10418 2473 8482 10402-AddedOnRampEdge 10402 998 996 10400 8134 10375 1057 1298 8368 8424 1295 8389 8361 89" /></vehicle><vehicle id="40" depart="0.00"><route edges="1524 1044 9954 1561 2739 814 1505 1302 8431 1305 999 8772 990 10397 991 8325 4765 42 4962 4963 4968 4969 4651 4661 10633 10636 4689 2121 2095 7125 10693 10696 9644 2058 8904 8903 8903-AddedOffRampEdge 10639 10344-AddedOnRampEdge 10344 10344-AddedOffRampEdge 2152 2154 2147 6507 6229 6290 6234 6237 6241 6326 6329 6257 6332 6387 6382 10594 7356 7361 7363 7370" /></vehicle><vehicle id="41" depart="0.00"><route edges="3983 3855 3803 1998 155 3107 2909 3001 3157 3024 2062 2057 157 2413 2406 2858 2840 2403 2822 2809 2796 2777 159 2729 813 1524 1043 1521 1514 1031 1501 1297 1038 38 1492 1496 1494 1027 1034 9171 8402 1394 8432 8401 8413 1441 8484 5107 8455 8448 8670 8457 8458 8461 8664" /></vehicle><vehicle id="42" depart="0.00"><route edges="9039 8929 10536-AddedOnRampEdge 10536 8931 11087 8922 3254 9018 9017 9225 9011 3671 3258 3261 3307 3749 3264 3299 3904 3887 3847 3843 3837 3834 3920 3853 4079 3851 10603 10605 4091 10606 4095 3819 1818 1819 4577 10403 1821 2047 10405 3179 3160 3158 3196 3188 2083 2076 2873 2860 10401 10418 2473 8482 10402-AddedOnRampEdge 10402 998 997 8772 989 8875-AddedOnRampEdge 8875 1125 1199 1133 1147" /></vehicle><vehicle id="43" depart="0.00"><route edges="2292 2234 2290 2200 2198 2257 2196 2187 2448 2416 2415-AddedOnRampEdge 2415 2634 2881 11188 2931 2647 2471 2659 2468 2670 2021 2692 2697 2702 2465 2711 2718 2461 2829 2836 2406 2858 2840 2403 2822 2809 2796 2777 159 2729 814 1505 1303 1081 1079 10374 987 988 8875-AddedOnRampEdge 8875" /></vehicle><vehicle id="44" depart="0.00"><route edges="8521 8524 8525 8576 8527 8530 8532 8534 9008 9162 5056 5052 5053 5055 5048 1442 5057 1444 5086 5009 5174 1447 8388 8419 1448-AddedOnRampEdge 1448 8367 1035 11099 11101 11103 37 798 1491 89 11137 1558 90 1663 93 1531 94 1653 96 1629 98 1613 99 1622 101 2549 104 106 2537 108 109 920 9711 1009 9334 9337 8557 876 867 8605 871 872 1925 1902 1063 1062 1885 1949 1951 1965 1953 1970 1946 1990 1948" /></vehicle><vehicle id="45" depart="0.00"><route edges="5901 5904 5905 10809 5757 5884 5882 5735 5727 5719 5722 4773 5683 5700 4775 8756 4806 4776 9607 4797 9606 4777 4795 4812 4792 4785 4693 4768 4771 4767 2771 2792 2819 2405 8490 2483 2493 2402 2500 2713 2412 2704 2699 2694 10870 2690 2018 2400 2682 2672 2666 2654 2649 2635 2624 2640 2517 2618 2614 2610 2455 2426 2210 2181 1939 1944 1970 1946 1990 1948" /></vehicle><vehicle id="46" depart="0.00"><route edges="10113 3211 3215 3205 156 3037 3015 2013 9521 2011 2948 2943 2509 2884 2966 2891 2892 3068 2190 2009 2230 2176 2253 2177 2185 1975 2223 1976 1978 1946 1990 1948" /></vehicle><vehicle id="47" depart="0.00"><route edges="2830 2829 2836 2408 9539 2082 2084 2086 4649 4663 10636 4689 2121 2095 7125 10693 10696 9644 2058 8904 8903 8903-AddedOffRampEdge 10639 10344-AddedOnRampEdge 10344 10344-AddedOffRampEdge 2152 2154 2147 6507 6231 6243 6247 6488 6494 6497 6500" /></vehicle><vehicle id="48" depart="0.00"><route edges="1131 1198 1135 1145 1163 1167 8763 8754 8760 4879 4774 4906 4906-AddedOffRampEdge 4959 5704 5705 5701 5989 6014 5991 5969 6137 6051 5986 6160 2091 5696 10038 7707 10724 7679 7180 7186 7090 7093 7653 7112 9766 10840 7648 9770 9876 2042 6978 6964 6977 6996 8059 6992 7810 7809 7825 7824 10848 10846 7071 8820 7845 6187 7372 7387 7394 7396 7513 6189 10949 6184 8800 8804 6437 8816 8818 11073 10765 10763 11088 9917 6183" /></vehicle><vehicle id="49" depart="0.00"><route edges="4655 4655-AddedOffRampEdge 994 995 4832 4850 4869 4767 2771 2792 2819 2404 2476 2846 2852 2472 10877 2869 2079 2081 3184 3192 3162 3175" /></vehicle><vehicle id="50" depart="0.00"><route edges="10401 10419 2472 10877 2869 2080 2077 2075 4651 4661 10633 10636 4689 2121 2095 7125 10693 10696 9644 2058 8904 8903 8903-AddedOffRampEdge 10639 10344-AddedOnRampEdge 10344 10344-AddedOffRampEdge 2152 2154 2147 6507 6231 6243 6247 6488 6494 6497 6500" /></vehicle><vehicle id="51" depart="0.00"><route edges="4177 4175 4196 9734 4173 4125 10417 10414 2107 10416 4105 4123 3815 1813 4456 4458 4458-AddedOffRampEdge 8990 4575 4574 10403 1821 2047 10405 3179 3160 3158 3196 3188 2083 2076 2873 2860 10401 10418 2473 8482 10402-AddedOnRampEdge 10402 998 997 8772 989 8875-AddedOnRampEdge 8875" /></vehicle><vehicle id="52" depart="0.00"><route edges="6354 10586 6351 10583 6342 10592 6385 6333 6203 10309 6201 6259 10743 10736 6210 6215 6274 254 6500 2146 2129 4138 4152 4153 4171 2111 2111-AddedOffRampEdge 2103 8909 8918 8931 11087 8921 9090 9093 11048 3244 10362-AddedOnRampEdge 10362 3247 10998 2204 2208 2295 2292 2234 2289 2194 2254 2259 2206 1985 1975 2223 1976 1978 1946 1990 1948" /></vehicle><vehicle id="53" depart="0.00"><route edges="2253 2187 2448 2416 2415-AddedOnRampEdge 2415 2634 2881 11188 2931 2648 2668 2069 267 3011 10328 10690 2073 158 9539 2082 2084 2086 4649 4663 10636 4689 2121 2095 7125 10693 10696 9644 2058 8904 8903 8903-AddedOffRampEdge 10639 10344-AddedOnRampEdge 10344 10344-AddedOffRampEdge 2152 2154 2147 6507 6231 6243 6247 6488 6494 6497 6500" /></vehicle><vehicle id="54" depart="0.00"><route edges="4086 4081 4101 4109 4121 4102 4104 1807 8326 4473 2109 4475 4512 4537 2131 4445 9882 7021 7580 7024 7033 7012 9897 10344-AddedOnRampEdge 10344 10344-AddedOffRampEdge 2152 2154 2147 6507 6231 6243 6247 6488 6494 6497 6500" /></vehicle><vehicle id="55" depart="0.00"><route edges="3001 3157 3024 2062 2057 157 2414 2838 2832 2459 2717 2710 2464 2701 2696 2693 2020 2669 2467 2658 2470 2637 2626 10958 2644 2513 2516 10670 2519 10669 918 1053 1798 1794 9331 9279 9283 1012 921 114 10679 902 1344 10563 832 8640 9343 864 11171 961 11118 952 892 552 926 928 944" /></vehicle><vehicle id="56" depart="0.00"><route edges="3975 3292 3303 8868 3288 4010 9051 3345 3341 3333 9067 9074 9076 9083 9226 9015 9019 3255 8921 9090 9093 11048 3244 10362-AddedOnRampEdge 10362 3247 10998 2204 2208 2295 2292 2234 2289 2194 2254 2259 2206 1985 1975 2223 1977 1983 1938 10464 1937 1935 1922 9211" /></vehicle><vehicle id="57" depart="0.00"><route edges="8863 8861 8859 4007 4061 8912 3237 3361 4004 8539 2101 3831 10422 10416 4105 4123 3815 1813 4456 4458 4458-AddedOffRampEdge 8990 4575 4574 10403 1821 2047 10405 3179 3160 3158 3196 3188 2083 2076 2873 2860 10401 10418 2473 8482 10402-AddedOnRampEdge 10402 998 997 8772 989 8875-AddedOnRampEdge 8875" /></vehicle><vehicle id="58" depart="0.00"><route edges="6065 6048 6166 6059 6145 6123 6098 6084 5739 5737 5928 5909 5771 5882 5734 5731 5860 5840 5836 5420 5421 5621 5605 5425 1087 1056 9678 1184 1142 1127 1193 1122 9683 1499 41 1057 1300 1503 1044 9953 1542 1668 1565 1648 1581 1659 1594 1633 1609 1617 1045 1626 1047 8248 1050 2544 1712 2535 1051 1072 815 1716" /></vehicle><vehicle id="59" depart="0.00"><route edges="1354 5121 5125 5128 5130 5123 5118 23 1469 31 10396 33 811 812-AddedOnRampEdge 812 812-AddedOffRampEdge 8495 8495-AddedOffRampEdge 10377 10377-AddedOffRampEdge 984 10397 991 8325 4765 42 4962 4963 4968 4969 4651 4661 10633 10636 4689 2121 2095 7125 10693 10696 9644 2058 8904 8903 8903-AddedOffRampEdge 10639 10344-AddedOnRampEdge 10344 10344-AddedOffRampEdge 2152 2154 2147 6507 6229 6290 6234 6237 6241 6326 6329 6257 6332 6387 6382 10594 7356 7361 7363 7370" /></vehicle><vehicle id="60" depart="0.00"><route edges="8136 8537 10436 11074 175 5036 445 10381 420 407 9103 10392 371 5035 8706 339 5012 23 1469 31 10396 33 811 812-AddedOnRampEdge 812 812-AddedOffRampEdge 8495 8495-AddedOffRampEdge 10377 10377-AddedOffRampEdge 984 10397 991 8325 4765 42 4962 4963 4968 4969 4651 4661 10633 10636 4689 2121 2095 7125 10693 10696 9644 2058 8904 8903 8903-AddedOffRampEdge 10639 10344-AddedOnRampEdge 10344 10344-AddedOffRampEdge 2152 2154 2147 6507 6229 6290 6234 6237 6241 6326 6329 6257 6332 6387 6382 10594 7356 7361 7363 7370" /></vehicle><vehicle id="61" depart="0.00"><route edges="787 756 790 764 760 8328 8354 775 700 11108 9136 8254 8283 8698 542 545 11154 9129 1754 11119 1757 11172 823 9341 8637 835 10562 1345 899 10678 111 8238 2538 1007 2541 8236 8246 843 980 1083 11151 2757 2015 2410 2779 2811 2825 2688 2411 2707 2714 2461 2829 2836 2408 9539 2082 2084 2086 4649 4663 10636 4689 2121 2095 7125 10693 10696 9644 2058 8904 8903 8903-AddedOffRampEdge 10639 10344-AddedOnRampEdge 10344 10344-AddedOffRampEdge 2152 2154 2147 6507 6231 6243 6247 6488 6494 6497 6500" /></vehicle><vehicle id="62" depart="0.00"><route edges="9124 949 11123 969 11177 907 909 1364 853 108 109 920 9711 1009 9334 9337 8557 876 867 8605 871 872 1925 1902 1063 1062 1885 1949 1951 1965 1953 1970 1946 1990 1948" /></vehicle><vehicle id="63" depart="0.00"><route edges="2744 2742 2769 2486 2774 2783 2804 2817 2482 2844 2854 2475 10877 2869 2079 2081 3184 3192 3162 3175" /></vehicle><vehicle id="64" depart="0.00"><route edges="6468 6451 6445 6431 6376 6374 8816 8819 6196-AddedOnRampEdge 6196 6197 6199 6188 7846 8821 7072 10845 7059 7831 7826 7816 7060 2041 9875 9769 7651 10839 9765 7111 7652 7092 7089 7185 7179 7678 10723 7706 10037 5698 2090 6159 5985 6050 6136 5968 6118 6019 5694 2127 5710 5922 5895 5765 5869 4772 10786 5866 5420 5421 5621 5605 5426 9566 5428 5587 9894 5570 5163 5559 1230 1217 85 5272 5296 323 307 325 10340 10465 5076 5075 5073 5071 5197 353 368 8508 8502 390 399 10525 126 415 429 5324 8487 424 8530 8532" /></vehicle><vehicle id="65" depart="0.00"><route edges="3737 3713 3312 9042 3315 3884 3887 3847 3843 3837 3834 3920 3855 3803 1998 155 3107 2909 3001 3157 3024 2062 2057 157 2413 2406 2858 2840 2403 2822 2809 2796 2777 159 2729 813 1524 1043 1521 1514 1030 1513 1510" /></vehicle><vehicle id="66" depart="0.00"><route edges="3158 3196 3188 2083 2076 2873 2860 10401 10418 2473 8482 10402-AddedOnRampEdge 10402 998 996 10400 8134 10375 1058 1518 1516 1038 38 1492 1496 1494 1027 1034 9171 8402 1394 8432 8401 8413 1441 8484 5107 8455 8448 8670 8457 8458 8461 8664" /></vehicle><vehicle id="67" depart="0.00"><route edges="37 798 1491 89 11137 1558 90 1663 93 1531 94 1653 96 1629 98 1613 99 1622 101 2549 104 106 2537 108 110 10677 902 1344 10563 832 8640 9343 864 11171 961 11118 952 892 552 926 928 944" /></vehicle><vehicle id="68" depart="0.00"><route edges="10113 3211 3215 3205 156 3037 3015 2013 9521 2011 2948 2943 2509 2884 2966 2891 2892 3068 2190 2009 2230 2176 2253 2177 2185 1975 2223 1976 1978 1946 1990 1948" /></vehicle><vehicle id="69" depart="0.00"><route edges="10690 2073 158 9539 2081 3184 3192 3162 3175" /></vehicle><vehicle id="70" depart="0.00"><route edges="394 405 9155 129 8664" /></vehicle><vehicle id="71" depart="0.00"><route edges="1067 1900 8610 871 872 1924 10145" /></vehicle><vehicle id="72" depart="0.00"><route edges="4187 4182 4186 4130 4177 4175 4196 9734 4173 4125 10417 10414 2108 4424 10420 4422 2106 2102 3992 3983 3854 3919 3835 3799 3778 3015 2013 9521 2011 2948 2942 3063 3079 3121 2979 2986 2939 2899 3003 2953 2510 2878 11187 2513 2516 10670 2519 10669 919 2528 2530 815 1716" /></vehicle><vehicle id="73" depart="0.00"><route edges="2863 2491 2856 2842 2493 2403 2822 2809 2796 2777 159 2729 813 1524 1043 1521 1514 1030 1513 1510" /></vehicle><vehicle id="74" depart="0.00"><route edges="1646 1567 1666 1540 1559 1031 1501 1297 1038 38 1492 1496 1494 1026 1033 8583 1189 1159 1152 1118 1238 1144 1257 1146 1276 1147" /></vehicle><vehicle id="75" depart="0.00"><route edges="7066 7823 7826 7816 7060 2041 9877 10315 7644 2044 2046 2003 9646 9798 10713 10709 9645 9643 4686 4745 2052 4741 4736 2054 4645 10754 2056 2048 2048-AddedOffRampEdge 9648" /></vehicle><vehicle id="76" depart="0.00"><route edges="8965 8966 2092 6718 7662 7794 9748 9749 9754 5943 10311 10021 7722 7094 6002 9206 9912 7159 5951 7118 5938 10709 9645 9643 4686 4745 2052 4741 4736 2054 4645 10754 2056 2048 2048-AddedOffRampEdge 9648 9651 8624 3173 2057 157 2414 2838 2832 2459 2717 2710 2464 2701 2696 2693 2020 2669 2467 2658 2470 2637 2626 10958 2644 2515 2620 2616 2611 2610 2455 2426 2210 2181 1939 1944 1970 1946 1990 1948" /></vehicle><vehicle id="77" depart="0.00"><route edges="5831 1174 1170 4867 4878 5834 5866 5420 5421 5621 5605 5425 1087 1056 9678 1183 1240 1186 1188 8407 1211 1178 1139 11095 11093 8367 1035 11099 11101 11103 37 798 1491 89" /></vehicle><vehicle id="78" depart="0.00"><route edges="1681 1683 1663 93 1531 94 1653 96 1629 98 1613 99 1622 101 2549 104 106 2537 108 109 920 9711 1009 9334 9337 8557 876 867 8605 871 872 1924 10145" /></vehicle><vehicle id="79" depart="0.00"><route edges="1597 8243 11058 8471 8694 908 915 824 864 11171 961 11118 952 892 552 926 928 944" /></vehicle><vehicle id="80" depart="0.00"><route edges="11077 10185 10034 8061 10854 7037 9991 6971 6949 262 10028 6939 2046 2003 9646 9798 10713 10709 9645 9643 4686 4745 2052 4741 4736 2054 4645 10754 2056 2047 10405 3179 3160 3158 3196 3188 2083 2076 2873 2860 10401 10418 2473 8482 10402-AddedOnRampEdge 10402 998 997 8772 989 8875-AddedOnRampEdge 8875" /></vehicle><vehicle id="81" depart="0.00"><route edges="1172 8763 8754 8760 4879 4774 4906 4906-AddedOffRampEdge 4959 5704 5705 5701 5989 6014 5991 5969 6137 6051 5986 6160 2091 5696 10038 7707 10724 7679 7180 7186 7090 7093 7653 7112 9766 10840 7648 9770 9876 2042 6978 6964 6977 6996 8059 6992 7810 7809 7825 7824 10848 10846 7071 8820 7845 6187 7372 7387 7394 7396 7513 6189 10949 6184 8800 8804 6437 8816 8818 11073 10765 10763 11088 9917 6183" /></vehicle><vehicle id="82" depart="0.00"><route edges="5223 9391 9270 5045 8671 8527 8530 8532 8534 9010 8729 8717 8725 8720 8727 8723 5099 11 5091 5160 5182 189 1395 58 1216 8646 5557 9262 1156 1243 1055 1251 1077 1170 4867 4879 4774 4906 4906-AddedOffRampEdge 4960 2125 252 4801 251 5935 6007 249 2088 2095 7125 10693 10696 9644 2058 8904 8903 8903-AddedOffRampEdge 10639 10344-AddedOnRampEdge 10344 10344-AddedOffRampEdge 2152 2154 2147 6507 6231 6243 6247 6488 6494 6497 6500" /></vehicle><vehicle id="83" depart="0.00"><route edges="3128 3073 3047 9525 2010 264 3784 3789 3785 3795 3235 3856 3798 3834 3920 3853 4080 4081 4101 4109 4121 4102 4104 1807 8326 4473 2109 4475 4512 4537 2131 4445 9882 7021 7580 7024 7033 7012 9897 10344-AddedOnRampEdge 10344 10344-AddedOffRampEdge 2152 2154 2147 6507 6229 6290 6234 6237 6241 6326 6329 6257 6332 6387 6382 10594 7356 7361 7363 7370" /></vehicle><vehicle id="84" depart="0.00"><route edges="4238 4177 4175 4196 9734 4173 4125 10417 10414 2108 4424 10420 4422 2106 2102 3992 3983 3854 3919 3835 3799 3778 3015 2013 9521 2011 2948 2942 3063 3079 3121 2979 2986 2939 2899 3003 2953 2510 2878 11187 2513 2516 10670 2519 10669 918 1053 1798 1794 9331 9279 9283 1012 921 114 10679 902 1344 10563 832 8640 9343 864 11171 961 11118 952 892 552 926 928 944" /></vehicle><vehicle id="85" depart="0.00"><route edges="5185 379 1421 8661 8451 1442 5057 1444 5086 5009 5174 1447 8388 8419 1448-AddedOnRampEdge 1448 8366 1158 1200 1120 1032 1149 1232 9683 1499 41 1057 1300 1503 1044 9953 1542 1668 1565 1648 1581 1659 1594 1633 1609 1617 1045 1626 1047 8248 1050 2544 1712 2535 1051 1072 815 1716" /></vehicle><vehicle id="86" depart="0.00"><route edges="1602 1356 904 100 1028 1046 1083 11151 2757 2015 2410 2779 2811 2825 2688 2411 2707 2714 2461 2829 2836 2408 9539 2082 2084 2086 4649 4663 10636 4689 2121 2095 7125 10693 10696 9644 2058 8904 8903 8903-AddedOffRampEdge 10639 10344-AddedOnRampEdge 10344 10344-AddedOffRampEdge 2152 2154 2147 6507 6231 6243 6247 6488 6494 6497 6500" /></vehicle><vehicle id="87" depart="0.00"><route edges="768 779 694 690 573 578 8316 11143 931 8301 10155 11154 9129 1754 11119 1757 11172 823 9341 8637 835 10562 1345 899 10678 111 8239 1003 9326 1051 1072 815 1716" /></vehicle><vehicle id="88" depart="0.00"><route edges="1195 1261 1127 1193 1122 9683 1499 41 1057 1300 1503 1044 9953 1542 1668 1565 1648 1581 1659 1594 1633 1609 1617 1045 1626 1047 8248 1050 2544 1712 2535 1052 2526 1054 1789 1751 8560 876 867 8605 871 872 1925 1902 1063 1062 1885 1949 1951 1965 1953 1970 1946 1990 1948" /></vehicle><vehicle id="89" depart="0.00"><route edges="2176 2253 2187 2448 2416 2415-AddedOnRampEdge 2415 2634 2881 11188 2931 2647 2471 2659 2468 2670 2021 2692 2697 2702 2465 2711 2718 2461 2829 2836 2406 2858 2840 2403 2822 2809 2796 2777 159 2729 814 1505 1303 1081 1079 10374 987 988 8875-AddedOnRampEdge 8875 1125 1199 1133 1147" /></vehicle><vehicle id="90" depart="0.00"><route edges="4119 4123 3815 1813 4456 4458 4458-AddedOffRampEdge 8990 4575 4574 10403 1821 2047 10405 3179 3160 3158 3196 3188 2083 2076 2873 2860 10401 10418 2473 8482 10402-AddedOnRampEdge 10402 998 997 8772 989 8875-AddedOnRampEdge 8875 1125 1199 1133 1147" /></vehicle><vehicle id="91" depart="0.00"><route edges="10307 211 10305 710 9556 480 702 492 495 731 727 482 224 5014 5231 5015 5203 10304 5017 5020 5022 9261 5026 10300 5151 9591 9595 9597 22 10326 8479 8476 8381 8405 9170 8366 1157 1202 10514 1159 1152 1118 1238 1144 1257 1146 1276 1147" /></vehicle><vehicle id="92" depart="0.00"><route edges="295 1107 365 5282 366 378 388 397 10528 502 413 427 429 5324 8487 424 8530 8532" /></vehicle><vehicle id="93" depart="0.00"><route edges="1049 1069 845 981 983 978 1605 1637 1641 1590 1655 817 1652 819 1672 820 2740 1528 1506 1305 999 8772 989 8875-AddedOnRampEdge 8875" /></vehicle><vehicle id="94" depart="0.00"><route edges="3764 3767 3752 9042 3315 3884 3887 3847 3843 3837 3834 3920 3853 4079 3851 10603 10605 4091 10606 4095 3819 1818 1819 4577 10403 1821 2047 10405 3179 3160 3158 3196 3188 2083 2076 2873 2860 10401 10418 2473 8482 10402-AddedOnRampEdge 10402 99