<configuration>

    <input>
        <net-file value="osm.net.xml"/>
        <route-files value="testing4.rou.xml"/>
    </input>


    <time>
        <begin value="0"/>
        <end value="5000"/>
    </time>


</configuration>

